Clear
Set DefaultBaseFrequency=60
new circuit.LANL420Nodeckt
~ Angle=45
~ basekv=0.4 pu=1 phases=1 bus1=101.1 enabled=n ! VOLTAGE SOURCE DEFINITION

New linecode.mtx001 nphases=1 Units=m Rmatrix=[0.97] Xmatrix=[0.22]
New linecode.mtx002 nphases=1 Units=m Rmatrix=[0.90] Xmatrix=[0.22]
New linecode.mtx003 nphases=1 Units=m Rmatrix=[0.83] Xmatrix=[0.74]
New linecode.mtx004 nphases=1 Units=m Rmatrix=[0.18] Xmatrix=[0.68]
New linecode.mtx005 nphases=1 Units=m Rmatrix=[0.54] Xmatrix=[0.87]
New linecode.mtx006 nphases=1 Units=m Rmatrix=[0.92] Xmatrix=[0.23]
New linecode.mtx007 nphases=1 Units=m Rmatrix=[0.89] Xmatrix=[0.66]
New linecode.mtx008 nphases=1 Units=m Rmatrix=[0.34] Xmatrix=[0.59]
New linecode.mtx009 nphases=1 Units=m Rmatrix=[0.28] Xmatrix=[0.04]
New linecode.mtx010 nphases=1 Units=m Rmatrix=[0.41] Xmatrix=[0.18]
New linecode.mtx011 nphases=1 Units=m Rmatrix=[0.62] Xmatrix=[0.54]
New linecode.mtx012 nphases=1 Units=m Rmatrix=[0.54] Xmatrix=[0.80]
New linecode.mtx013 nphases=1 Units=m Rmatrix=[0.03] Xmatrix=[0.34]
New linecode.mtx014 nphases=1 Units=m Rmatrix=[0.06] Xmatrix=[0.86]
New linecode.mtx015 nphases=1 Units=m Rmatrix=[0.96] Xmatrix=[0.50]
New linecode.mtx016 nphases=1 Units=m Rmatrix=[0.20] Xmatrix=[0.52]
New linecode.mtx017 nphases=1 Units=m Rmatrix=[0.09] Xmatrix=[0.50]
New linecode.mtx018 nphases=1 Units=m Rmatrix=[0.98] Xmatrix=[0.35]
New linecode.mtx019 nphases=1 Units=m Rmatrix=[0.17] Xmatrix=[0.02]
New linecode.mtx020 nphases=1 Units=m Rmatrix=[0.09] Xmatrix=[0.80]
New linecode.mtx021 nphases=1 Units=m Rmatrix=[0.69] Xmatrix=[0.16]
New linecode.mtx022 nphases=1 Units=m Rmatrix=[0.50] Xmatrix=[0.82]
New linecode.mtx023 nphases=1 Units=m Rmatrix=[0.43] Xmatrix=[0.64]
New linecode.mtx024 nphases=1 Units=m Rmatrix=[0.78] Xmatrix=[0.00]
New linecode.mtx025 nphases=1 Units=m Rmatrix=[0.24] Xmatrix=[0.00]
New linecode.mtx026 nphases=1 Units=m Rmatrix=[0.22] Xmatrix=[0.89]
New linecode.mtx027 nphases=1 Units=m Rmatrix=[0.29] Xmatrix=[0.51]
New linecode.mtx028 nphases=1 Units=m Rmatrix=[0.41] Xmatrix=[0.44]
New linecode.mtx029 nphases=1 Units=m Rmatrix=[0.02] Xmatrix=[0.06]
New linecode.mtx030 nphases=1 Units=m Rmatrix=[0.02] Xmatrix=[0.76]
New linecode.mtx031 nphases=1 Units=m Rmatrix=[0.71] Xmatrix=[0.56]
New linecode.mtx032 nphases=1 Units=m Rmatrix=[0.98] Xmatrix=[0.75]
New linecode.mtx033 nphases=1 Units=m Rmatrix=[0.22] Xmatrix=[0.39]
New linecode.mtx034 nphases=1 Units=m Rmatrix=[0.64] Xmatrix=[0.56]
New linecode.mtx035 nphases=1 Units=m Rmatrix=[0.10] Xmatrix=[0.94]
New linecode.mtx036 nphases=1 Units=m Rmatrix=[0.33] Xmatrix=[0.24]
New linecode.mtx037 nphases=1 Units=m Rmatrix=[0.66] Xmatrix=[0.55]
New linecode.mtx038 nphases=1 Units=m Rmatrix=[0.43] Xmatrix=[0.14]
New linecode.mtx039 nphases=1 Units=m Rmatrix=[0.84] Xmatrix=[0.50]
New linecode.mtx040 nphases=1 Units=m Rmatrix=[0.36] Xmatrix=[0.50]
New linecode.mtx041 nphases=1 Units=m Rmatrix=[0.07] Xmatrix=[0.36]
New linecode.mtx042 nphases=1 Units=m Rmatrix=[0.72] Xmatrix=[0.19]
New linecode.mtx043 nphases=1 Units=m Rmatrix=[0.82] Xmatrix=[0.67]
New linecode.mtx044 nphases=1 Units=m Rmatrix=[0.13] Xmatrix=[0.39]
New linecode.mtx045 nphases=1 Units=m Rmatrix=[0.18] Xmatrix=[0.15]
New linecode.mtx046 nphases=1 Units=m Rmatrix=[0.10] Xmatrix=[0.82]
New linecode.mtx047 nphases=1 Units=m Rmatrix=[0.68] Xmatrix=[0.33]
New linecode.mtx048 nphases=1 Units=m Rmatrix=[0.82] Xmatrix=[0.16]
New linecode.mtx049 nphases=1 Units=m Rmatrix=[0.39] Xmatrix=[0.38]
New linecode.mtx050 nphases=1 Units=m Rmatrix=[0.35] Xmatrix=[0.05]
New linecode.mtx051 nphases=1 Units=m Rmatrix=[0.56] Xmatrix=[0.62]
New linecode.mtx052 nphases=1 Units=m Rmatrix=[0.90] Xmatrix=[0.85]
New linecode.mtx053 nphases=1 Units=m Rmatrix=[0.32] Xmatrix=[0.88]
New linecode.mtx054 nphases=1 Units=m Rmatrix=[0.87] Xmatrix=[0.11]
New linecode.mtx055 nphases=1 Units=m Rmatrix=[0.35] Xmatrix=[1.00]
New linecode.mtx056 nphases=1 Units=m Rmatrix=[0.75] Xmatrix=[0.10]
New linecode.mtx057 nphases=1 Units=m Rmatrix=[0.58] Xmatrix=[0.12]
New linecode.mtx058 nphases=1 Units=m Rmatrix=[0.76] Xmatrix=[0.03]
New linecode.mtx059 nphases=1 Units=m Rmatrix=[0.48] Xmatrix=[0.11]
New linecode.mtx060 nphases=1 Units=m Rmatrix=[0.64] Xmatrix=[0.80]
New linecode.mtx061 nphases=1 Units=m Rmatrix=[0.15] Xmatrix=[0.94]
New linecode.mtx062 nphases=1 Units=m Rmatrix=[0.88] Xmatrix=[0.15]
New linecode.mtx063 nphases=1 Units=m Rmatrix=[0.88] Xmatrix=[0.75]
New linecode.mtx064 nphases=1 Units=m Rmatrix=[0.96] Xmatrix=[0.18]
New linecode.mtx065 nphases=1 Units=m Rmatrix=[0.77] Xmatrix=[0.16]
New linecode.mtx066 nphases=1 Units=m Rmatrix=[0.45] Xmatrix=[0.89]
New linecode.mtx067 nphases=1 Units=m Rmatrix=[0.53] Xmatrix=[0.59]
New linecode.mtx068 nphases=1 Units=m Rmatrix=[0.18] Xmatrix=[0.49]
New linecode.mtx069 nphases=1 Units=m Rmatrix=[0.77] Xmatrix=[0.77]
New linecode.mtx070 nphases=1 Units=m Rmatrix=[0.87] Xmatrix=[0.24]
New linecode.mtx071 nphases=1 Units=m Rmatrix=[0.07] Xmatrix=[0.71]
New linecode.mtx072 nphases=1 Units=m Rmatrix=[0.42] Xmatrix=[0.66]
New linecode.mtx073 nphases=1 Units=m Rmatrix=[0.64] Xmatrix=[0.43]
New linecode.mtx074 nphases=1 Units=m Rmatrix=[0.23] Xmatrix=[0.10]
New linecode.mtx075 nphases=1 Units=m Rmatrix=[0.27] Xmatrix=[0.57]
New linecode.mtx076 nphases=1 Units=m Rmatrix=[0.87] Xmatrix=[0.68]
New linecode.mtx077 nphases=1 Units=m Rmatrix=[0.12] Xmatrix=[0.26]
New linecode.mtx078 nphases=1 Units=m Rmatrix=[0.87] Xmatrix=[0.92]
New linecode.mtx079 nphases=1 Units=m Rmatrix=[0.03] Xmatrix=[0.94]
New linecode.mtx080 nphases=1 Units=m Rmatrix=[0.50] Xmatrix=[0.22]
New linecode.mtx081 nphases=1 Units=m Rmatrix=[0.91] Xmatrix=[0.91]
New linecode.mtx082 nphases=1 Units=m Rmatrix=[0.72] Xmatrix=[0.26]
New linecode.mtx083 nphases=1 Units=m Rmatrix=[0.53] Xmatrix=[0.70]
New linecode.mtx084 nphases=1 Units=m Rmatrix=[0.08] Xmatrix=[0.65]
New linecode.mtx085 nphases=1 Units=m Rmatrix=[0.41] Xmatrix=[0.46]
New linecode.mtx086 nphases=1 Units=m Rmatrix=[0.43] Xmatrix=[0.01]
New linecode.mtx087 nphases=1 Units=m Rmatrix=[0.08] Xmatrix=[0.56]
New linecode.mtx088 nphases=1 Units=m Rmatrix=[0.95] Xmatrix=[0.63]
New linecode.mtx089 nphases=1 Units=m Rmatrix=[0.23] Xmatrix=[0.22]
New linecode.mtx090 nphases=1 Units=m Rmatrix=[0.18] Xmatrix=[0.03]
New linecode.mtx091 nphases=1 Units=m Rmatrix=[0.21] Xmatrix=[0.42]
New linecode.mtx092 nphases=1 Units=m Rmatrix=[0.66] Xmatrix=[0.46]
New linecode.mtx093 nphases=1 Units=m Rmatrix=[0.21] Xmatrix=[0.71]
New linecode.mtx094 nphases=1 Units=m Rmatrix=[0.71] Xmatrix=[0.64]
New linecode.mtx095 nphases=1 Units=m Rmatrix=[0.59] Xmatrix=[0.62]
New linecode.mtx096 nphases=1 Units=m Rmatrix=[0.89] Xmatrix=[0.84]
New linecode.mtx097 nphases=1 Units=m Rmatrix=[0.36] Xmatrix=[0.89]
New linecode.mtx098 nphases=1 Units=m Rmatrix=[0.48] Xmatrix=[0.70]
New linecode.mtx099 nphases=1 Units=m Rmatrix=[0.11] Xmatrix=[0.81]
New linecode.mtx100 nphases=1 Units=m Rmatrix=[0.98] Xmatrix=[0.33]
New linecode.mtx101 nphases=1 Units=m Rmatrix=[0.10] Xmatrix=[0.70]
New linecode.mtx102 nphases=1 Units=m Rmatrix=[0.71] Xmatrix=[0.10]
New linecode.mtx103 nphases=1 Units=m Rmatrix=[0.95] Xmatrix=[0.23]
New linecode.mtx104 nphases=1 Units=m Rmatrix=[0.47] Xmatrix=[0.94]
New linecode.mtx105 nphases=1 Units=m Rmatrix=[0.64] Xmatrix=[0.49]
New linecode.mtx106 nphases=1 Units=m Rmatrix=[0.51] Xmatrix=[0.62]
New linecode.mtx107 nphases=1 Units=m Rmatrix=[0.73] Xmatrix=[0.53]
New linecode.mtx108 nphases=1 Units=m Rmatrix=[0.80] Xmatrix=[0.39]
New linecode.mtx109 nphases=1 Units=m Rmatrix=[0.33] Xmatrix=[0.09]
New linecode.mtx110 nphases=1 Units=m Rmatrix=[0.60] Xmatrix=[0.91]
New linecode.mtx111 nphases=1 Units=m Rmatrix=[0.31] Xmatrix=[0.06]
New linecode.mtx112 nphases=1 Units=m Rmatrix=[0.72] Xmatrix=[0.38]
New linecode.mtx113 nphases=1 Units=m Rmatrix=[0.26] Xmatrix=[0.25]
New linecode.mtx114 nphases=1 Units=m Rmatrix=[0.15] Xmatrix=[0.50]
New linecode.mtx115 nphases=1 Units=m Rmatrix=[0.29] Xmatrix=[0.26]
New linecode.mtx116 nphases=1 Units=m Rmatrix=[0.55] Xmatrix=[0.94]
New linecode.mtx117 nphases=1 Units=m Rmatrix=[0.25] Xmatrix=[0.54]
New linecode.mtx118 nphases=1 Units=m Rmatrix=[0.42] Xmatrix=[0.90]
New linecode.mtx119 nphases=1 Units=m Rmatrix=[0.37] Xmatrix=[0.70]
New linecode.mtx120 nphases=1 Units=m Rmatrix=[0.17] Xmatrix=[0.18]
New linecode.mtx121 nphases=1 Units=m Rmatrix=[0.98] Xmatrix=[0.15]
New linecode.mtx122 nphases=1 Units=m Rmatrix=[0.98] Xmatrix=[0.54]
New linecode.mtx123 nphases=1 Units=m Rmatrix=[0.14] Xmatrix=[0.62]
New linecode.mtx124 nphases=1 Units=m Rmatrix=[0.65] Xmatrix=[0.00]
New linecode.mtx125 nphases=1 Units=m Rmatrix=[0.91] Xmatrix=[0.80]
New linecode.mtx126 nphases=1 Units=m Rmatrix=[0.94] Xmatrix=[0.27]
New linecode.mtx127 nphases=1 Units=m Rmatrix=[0.85] Xmatrix=[0.54]
New linecode.mtx128 nphases=1 Units=m Rmatrix=[0.56] Xmatrix=[0.21]
New linecode.mtx129 nphases=1 Units=m Rmatrix=[0.87] Xmatrix=[0.77]
New linecode.mtx130 nphases=1 Units=m Rmatrix=[0.47] Xmatrix=[0.97]
New linecode.mtx131 nphases=1 Units=m Rmatrix=[0.54] Xmatrix=[0.05]
New linecode.mtx132 nphases=1 Units=m Rmatrix=[0.73] Xmatrix=[0.32]
New linecode.mtx133 nphases=1 Units=m Rmatrix=[0.33] Xmatrix=[0.91]
New linecode.mtx134 nphases=1 Units=m Rmatrix=[0.53] Xmatrix=[0.88]
New linecode.mtx135 nphases=1 Units=m Rmatrix=[0.12] Xmatrix=[0.04]
New linecode.mtx136 nphases=1 Units=m Rmatrix=[0.21] Xmatrix=[0.75]
New linecode.mtx137 nphases=1 Units=m Rmatrix=[0.85] Xmatrix=[0.42]
New linecode.mtx138 nphases=1 Units=m Rmatrix=[0.55] Xmatrix=[0.79]
New linecode.mtx139 nphases=1 Units=m Rmatrix=[0.08] Xmatrix=[0.26]
New linecode.mtx140 nphases=1 Units=m Rmatrix=[0.27] Xmatrix=[0.16]
New linecode.mtx141 nphases=1 Units=m Rmatrix=[0.32] Xmatrix=[0.21]
New linecode.mtx142 nphases=1 Units=m Rmatrix=[0.59] Xmatrix=[0.87]
New linecode.mtx143 nphases=1 Units=m Rmatrix=[0.55] Xmatrix=[0.49]
New linecode.mtx144 nphases=1 Units=m Rmatrix=[0.59] Xmatrix=[0.02]
New linecode.mtx145 nphases=1 Units=m Rmatrix=[0.32] Xmatrix=[0.77]
New linecode.mtx146 nphases=1 Units=m Rmatrix=[0.85] Xmatrix=[0.05]
New linecode.mtx147 nphases=1 Units=m Rmatrix=[0.37] Xmatrix=[0.40]
New linecode.mtx148 nphases=1 Units=m Rmatrix=[0.08] Xmatrix=[0.27]
New linecode.mtx149 nphases=1 Units=m Rmatrix=[0.48] Xmatrix=[0.48]
New linecode.mtx150 nphases=1 Units=m Rmatrix=[0.12] Xmatrix=[0.78]
New linecode.mtx151 nphases=1 Units=m Rmatrix=[0.77] Xmatrix=[0.89]
New linecode.mtx152 nphases=1 Units=m Rmatrix=[0.29] Xmatrix=[0.16]
New linecode.mtx153 nphases=1 Units=m Rmatrix=[0.06] Xmatrix=[0.17]
New linecode.mtx154 nphases=1 Units=m Rmatrix=[0.93] Xmatrix=[0.75]
New linecode.mtx155 nphases=1 Units=m Rmatrix=[0.93] Xmatrix=[0.76]
New linecode.mtx156 nphases=1 Units=m Rmatrix=[0.93] Xmatrix=[0.64]
New linecode.mtx157 nphases=1 Units=m Rmatrix=[0.77] Xmatrix=[0.15]
New linecode.mtx158 nphases=1 Units=m Rmatrix=[0.07] Xmatrix=[0.85]
New linecode.mtx159 nphases=1 Units=m Rmatrix=[0.49] Xmatrix=[0.16]
New linecode.mtx160 nphases=1 Units=m Rmatrix=[0.46] Xmatrix=[0.04]
New linecode.mtx161 nphases=1 Units=m Rmatrix=[0.97] Xmatrix=[0.98]
New linecode.mtx162 nphases=1 Units=m Rmatrix=[0.10] Xmatrix=[0.45]
New linecode.mtx163 nphases=1 Units=m Rmatrix=[0.64] Xmatrix=[1.00]
New linecode.mtx164 nphases=1 Units=m Rmatrix=[0.46] Xmatrix=[0.52]
New linecode.mtx165 nphases=1 Units=m Rmatrix=[0.75] Xmatrix=[0.53]
New linecode.mtx166 nphases=1 Units=m Rmatrix=[0.21] Xmatrix=[0.95]
New linecode.mtx167 nphases=1 Units=m Rmatrix=[0.09] Xmatrix=[0.78]
New linecode.mtx168 nphases=1 Units=m Rmatrix=[0.34] Xmatrix=[0.63]
New linecode.mtx169 nphases=1 Units=m Rmatrix=[0.54] Xmatrix=[0.25]
New linecode.mtx170 nphases=1 Units=m Rmatrix=[0.07] Xmatrix=[0.06]
New linecode.mtx171 nphases=1 Units=m Rmatrix=[0.19] Xmatrix=[0.56]
New linecode.mtx172 nphases=1 Units=m Rmatrix=[0.14] Xmatrix=[0.40]
New linecode.mtx173 nphases=1 Units=m Rmatrix=[0.80] Xmatrix=[0.87]
New linecode.mtx174 nphases=1 Units=m Rmatrix=[0.78] Xmatrix=[0.86]
New linecode.mtx175 nphases=1 Units=m Rmatrix=[0.58] Xmatrix=[0.72]
New linecode.mtx176 nphases=1 Units=m Rmatrix=[0.76] Xmatrix=[0.76]
New linecode.mtx177 nphases=1 Units=m Rmatrix=[0.45] Xmatrix=[0.05]
New linecode.mtx178 nphases=1 Units=m Rmatrix=[0.82] Xmatrix=[0.55]
New linecode.mtx179 nphases=1 Units=m Rmatrix=[0.45] Xmatrix=[0.90]
New linecode.mtx180 nphases=1 Units=m Rmatrix=[0.41] Xmatrix=[0.86]
New linecode.mtx181 nphases=1 Units=m Rmatrix=[0.64] Xmatrix=[0.88]
New linecode.mtx182 nphases=1 Units=m Rmatrix=[0.99] Xmatrix=[0.23]
New linecode.mtx183 nphases=1 Units=m Rmatrix=[0.52] Xmatrix=[0.64]
New linecode.mtx184 nphases=1 Units=m Rmatrix=[0.75] Xmatrix=[0.71]
New linecode.mtx185 nphases=1 Units=m Rmatrix=[0.14] Xmatrix=[0.54]
New linecode.mtx186 nphases=1 Units=m Rmatrix=[0.01] Xmatrix=[0.13]
New linecode.mtx187 nphases=1 Units=m Rmatrix=[0.59] Xmatrix=[0.08]
New linecode.mtx188 nphases=1 Units=m Rmatrix=[0.06] Xmatrix=[0.02]
New linecode.mtx189 nphases=1 Units=m Rmatrix=[1.00] Xmatrix=[0.65]
New linecode.mtx190 nphases=1 Units=m Rmatrix=[0.22] Xmatrix=[0.92]
New linecode.mtx191 nphases=1 Units=m Rmatrix=[0.92] Xmatrix=[0.37]
New linecode.mtx192 nphases=1 Units=m Rmatrix=[0.44] Xmatrix=[0.12]
New linecode.mtx193 nphases=1 Units=m Rmatrix=[0.71] Xmatrix=[0.99]
New linecode.mtx194 nphases=1 Units=m Rmatrix=[0.89] Xmatrix=[0.22]
New linecode.mtx195 nphases=1 Units=m Rmatrix=[0.77] Xmatrix=[0.56]
New linecode.mtx196 nphases=1 Units=m Rmatrix=[0.16] Xmatrix=[0.56]
New linecode.mtx197 nphases=1 Units=m Rmatrix=[0.22] Xmatrix=[0.44]
New linecode.mtx198 nphases=1 Units=m Rmatrix=[0.51] Xmatrix=[0.19]
New linecode.mtx199 nphases=1 Units=m Rmatrix=[0.98] Xmatrix=[0.40]
New linecode.mtx200 nphases=1 Units=m Rmatrix=[0.41] Xmatrix=[0.40]
New linecode.mtx201 nphases=1 Units=m Rmatrix=[0.69] Xmatrix=[0.96]
New linecode.mtx202 nphases=1 Units=m Rmatrix=[0.14] Xmatrix=[0.06]
New linecode.mtx203 nphases=1 Units=m Rmatrix=[0.09] Xmatrix=[0.96]
New linecode.mtx204 nphases=1 Units=m Rmatrix=[0.28] Xmatrix=[0.28]
New linecode.mtx205 nphases=1 Units=m Rmatrix=[0.11] Xmatrix=[0.24]
New linecode.mtx206 nphases=1 Units=m Rmatrix=[0.65] Xmatrix=[0.53]
New linecode.mtx207 nphases=1 Units=m Rmatrix=[0.93] Xmatrix=[0.56]
New linecode.mtx208 nphases=1 Units=m Rmatrix=[0.62] Xmatrix=[0.50]
New linecode.mtx209 nphases=1 Units=m Rmatrix=[0.33] Xmatrix=[0.63]
New linecode.mtx210 nphases=1 Units=m Rmatrix=[0.65] Xmatrix=[0.81]
New linecode.mtx211 nphases=1 Units=m Rmatrix=[0.73] Xmatrix=[0.08]
New linecode.mtx212 nphases=1 Units=m Rmatrix=[0.75] Xmatrix=[0.57]
New linecode.mtx213 nphases=1 Units=m Rmatrix=[0.13] Xmatrix=[0.99]
New linecode.mtx214 nphases=1 Units=m Rmatrix=[0.29] Xmatrix=[0.80]
New linecode.mtx215 nphases=1 Units=m Rmatrix=[0.76] Xmatrix=[0.11]
New linecode.mtx216 nphases=1 Units=m Rmatrix=[0.91] Xmatrix=[0.54]
New linecode.mtx217 nphases=1 Units=m Rmatrix=[0.14] Xmatrix=[0.10]
New linecode.mtx218 nphases=1 Units=m Rmatrix=[0.16] Xmatrix=[0.04]
New linecode.mtx219 nphases=1 Units=m Rmatrix=[0.81] Xmatrix=[0.03]
New linecode.mtx220 nphases=1 Units=m Rmatrix=[0.97] Xmatrix=[0.06]
New linecode.mtx221 nphases=1 Units=m Rmatrix=[0.18] Xmatrix=[0.28]
New linecode.mtx222 nphases=1 Units=m Rmatrix=[0.67] Xmatrix=[0.82]
New linecode.mtx223 nphases=1 Units=m Rmatrix=[0.55] Xmatrix=[0.86]
New linecode.mtx224 nphases=1 Units=m Rmatrix=[0.60] Xmatrix=[0.89]
New linecode.mtx225 nphases=1 Units=m Rmatrix=[0.45] Xmatrix=[0.47]
New linecode.mtx226 nphases=1 Units=m Rmatrix=[0.91] Xmatrix=[0.95]
New linecode.mtx227 nphases=1 Units=m Rmatrix=[0.86] Xmatrix=[0.26]
New linecode.mtx228 nphases=1 Units=m Rmatrix=[0.13] Xmatrix=[0.75]
New linecode.mtx229 nphases=1 Units=m Rmatrix=[0.79] Xmatrix=[0.25]
New linecode.mtx230 nphases=1 Units=m Rmatrix=[0.93] Xmatrix=[0.26]
New linecode.mtx231 nphases=1 Units=m Rmatrix=[0.12] Xmatrix=[0.30]
New linecode.mtx232 nphases=1 Units=m Rmatrix=[0.63] Xmatrix=[0.01]
New linecode.mtx233 nphases=1 Units=m Rmatrix=[0.00] Xmatrix=[0.28]
New linecode.mtx234 nphases=1 Units=m Rmatrix=[0.16] Xmatrix=[0.32]
New linecode.mtx235 nphases=1 Units=m Rmatrix=[0.92] Xmatrix=[0.65]
New linecode.mtx236 nphases=1 Units=m Rmatrix=[0.11] Xmatrix=[0.58]
New linecode.mtx237 nphases=1 Units=m Rmatrix=[0.53] Xmatrix=[0.65]
New linecode.mtx238 nphases=1 Units=m Rmatrix=[0.83] Xmatrix=[0.30]
New linecode.mtx239 nphases=1 Units=m Rmatrix=[0.84] Xmatrix=[0.76]
New linecode.mtx240 nphases=1 Units=m Rmatrix=[0.97] Xmatrix=[0.35]
New linecode.mtx241 nphases=1 Units=m Rmatrix=[0.98] Xmatrix=[0.97]
New linecode.mtx242 nphases=1 Units=m Rmatrix=[0.33] Xmatrix=[0.69]
New linecode.mtx243 nphases=1 Units=m Rmatrix=[0.41] Xmatrix=[0.64]
New linecode.mtx244 nphases=1 Units=m Rmatrix=[0.48] Xmatrix=[0.75]
New linecode.mtx245 nphases=1 Units=m Rmatrix=[0.14] Xmatrix=[0.28]
New linecode.mtx246 nphases=1 Units=m Rmatrix=[0.54] Xmatrix=[0.05]
New linecode.mtx247 nphases=1 Units=m Rmatrix=[0.27] Xmatrix=[0.19]
New linecode.mtx248 nphases=1 Units=m Rmatrix=[0.61] Xmatrix=[0.94]
New linecode.mtx249 nphases=1 Units=m Rmatrix=[0.39] Xmatrix=[0.66]
New linecode.mtx250 nphases=1 Units=m Rmatrix=[0.95] Xmatrix=[0.01]
New linecode.mtx251 nphases=1 Units=m Rmatrix=[0.63] Xmatrix=[0.99]
New linecode.mtx252 nphases=1 Units=m Rmatrix=[0.57] Xmatrix=[0.81]
New linecode.mtx253 nphases=1 Units=m Rmatrix=[0.69] Xmatrix=[0.63]
New linecode.mtx254 nphases=1 Units=m Rmatrix=[0.47] Xmatrix=[0.44]
New linecode.mtx255 nphases=1 Units=m Rmatrix=[0.44] Xmatrix=[0.00]
New linecode.mtx256 nphases=1 Units=m Rmatrix=[0.44] Xmatrix=[0.89]
New linecode.mtx257 nphases=1 Units=m Rmatrix=[0.47] Xmatrix=[0.35]
New linecode.mtx258 nphases=1 Units=m Rmatrix=[0.81] Xmatrix=[0.54]
New linecode.mtx259 nphases=1 Units=m Rmatrix=[0.35] Xmatrix=[0.80]
New linecode.mtx260 nphases=1 Units=m Rmatrix=[0.17] Xmatrix=[0.34]
New linecode.mtx261 nphases=1 Units=m Rmatrix=[0.76] Xmatrix=[0.10]
New linecode.mtx262 nphases=1 Units=m Rmatrix=[0.44] Xmatrix=[0.58]
New linecode.mtx263 nphases=1 Units=m Rmatrix=[0.55] Xmatrix=[0.87]
New linecode.mtx264 nphases=1 Units=m Rmatrix=[0.29] Xmatrix=[0.70]
New linecode.mtx265 nphases=1 Units=m Rmatrix=[0.04] Xmatrix=[0.63]
New linecode.mtx266 nphases=1 Units=m Rmatrix=[0.95] Xmatrix=[0.56]
New linecode.mtx267 nphases=1 Units=m Rmatrix=[0.03] Xmatrix=[0.17]
New linecode.mtx268 nphases=1 Units=m Rmatrix=[0.99] Xmatrix=[0.94]
New linecode.mtx269 nphases=1 Units=m Rmatrix=[0.46] Xmatrix=[0.70]
New linecode.mtx270 nphases=1 Units=m Rmatrix=[0.37] Xmatrix=[0.18]
New linecode.mtx271 nphases=1 Units=m Rmatrix=[0.38] Xmatrix=[0.34]
New linecode.mtx272 nphases=1 Units=m Rmatrix=[0.15] Xmatrix=[0.03]
New linecode.mtx273 nphases=1 Units=m Rmatrix=[0.43] Xmatrix=[0.34]
New linecode.mtx274 nphases=1 Units=m Rmatrix=[0.83] Xmatrix=[0.65]
New linecode.mtx275 nphases=1 Units=m Rmatrix=[0.71] Xmatrix=[0.63]
New linecode.mtx276 nphases=1 Units=m Rmatrix=[0.30] Xmatrix=[0.32]
New linecode.mtx277 nphases=1 Units=m Rmatrix=[0.80] Xmatrix=[0.95]
New linecode.mtx278 nphases=1 Units=m Rmatrix=[0.91] Xmatrix=[0.77]
New linecode.mtx279 nphases=1 Units=m Rmatrix=[0.99] Xmatrix=[0.16]
New linecode.mtx280 nphases=1 Units=m Rmatrix=[0.26] Xmatrix=[0.63]
New linecode.mtx281 nphases=1 Units=m Rmatrix=[0.20] Xmatrix=[0.55]
New linecode.mtx282 nphases=1 Units=m Rmatrix=[0.95] Xmatrix=[0.28]
New linecode.mtx283 nphases=1 Units=m Rmatrix=[0.04] Xmatrix=[0.91]
New linecode.mtx284 nphases=1 Units=m Rmatrix=[0.07] Xmatrix=[0.71]
New linecode.mtx285 nphases=1 Units=m Rmatrix=[0.07] Xmatrix=[0.37]
New linecode.mtx286 nphases=1 Units=m Rmatrix=[0.49] Xmatrix=[0.33]
New linecode.mtx287 nphases=1 Units=m Rmatrix=[0.91] Xmatrix=[0.98]
New linecode.mtx288 nphases=1 Units=m Rmatrix=[0.88] Xmatrix=[0.72]
New linecode.mtx289 nphases=1 Units=m Rmatrix=[0.04] Xmatrix=[0.60]
New linecode.mtx290 nphases=1 Units=m Rmatrix=[0.66] Xmatrix=[0.76]
New linecode.mtx291 nphases=1 Units=m Rmatrix=[0.36] Xmatrix=[0.55]
New linecode.mtx292 nphases=1 Units=m Rmatrix=[0.72] Xmatrix=[0.66]
New linecode.mtx293 nphases=1 Units=m Rmatrix=[0.17] Xmatrix=[0.45]
New linecode.mtx294 nphases=1 Units=m Rmatrix=[0.89] Xmatrix=[0.79]
New linecode.mtx295 nphases=1 Units=m Rmatrix=[0.02] Xmatrix=[0.24]
New linecode.mtx296 nphases=1 Units=m Rmatrix=[0.59] Xmatrix=[0.25]
New linecode.mtx297 nphases=1 Units=m Rmatrix=[0.55] Xmatrix=[0.56]
New linecode.mtx298 nphases=1 Units=m Rmatrix=[0.12] Xmatrix=[0.81]
New linecode.mtx299 nphases=1 Units=m Rmatrix=[0.35] Xmatrix=[0.81]
New linecode.mtx300 nphases=1 Units=m Rmatrix=[0.47] Xmatrix=[0.84]
New linecode.mtx301 nphases=1 Units=m Rmatrix=[0.22] Xmatrix=[0.17]
New linecode.mtx302 nphases=1 Units=m Rmatrix=[0.08] Xmatrix=[0.52]
New linecode.mtx303 nphases=1 Units=m Rmatrix=[0.23] Xmatrix=[0.32]
New linecode.mtx304 nphases=1 Units=m Rmatrix=[0.16] Xmatrix=[0.93]
New linecode.mtx305 nphases=1 Units=m Rmatrix=[0.18] Xmatrix=[0.87]
New linecode.mtx306 nphases=1 Units=m Rmatrix=[0.90] Xmatrix=[0.02]
New linecode.mtx307 nphases=1 Units=m Rmatrix=[0.28] Xmatrix=[0.35]
New linecode.mtx308 nphases=1 Units=m Rmatrix=[0.32] Xmatrix=[0.74]
New linecode.mtx309 nphases=1 Units=m Rmatrix=[0.98] Xmatrix=[0.98]
New linecode.mtx310 nphases=1 Units=m Rmatrix=[0.35] Xmatrix=[0.59]
New linecode.mtx311 nphases=1 Units=m Rmatrix=[0.55] Xmatrix=[0.82]
New linecode.mtx312 nphases=1 Units=m Rmatrix=[0.18] Xmatrix=[0.44]
New linecode.mtx313 nphases=1 Units=m Rmatrix=[0.57] Xmatrix=[0.86]
New linecode.mtx314 nphases=1 Units=m Rmatrix=[0.30] Xmatrix=[0.94]
New linecode.mtx315 nphases=1 Units=m Rmatrix=[0.21] Xmatrix=[0.01]
New linecode.mtx316 nphases=1 Units=m Rmatrix=[0.05] Xmatrix=[0.60]
New linecode.mtx317 nphases=1 Units=m Rmatrix=[0.52] Xmatrix=[0.79]
New linecode.mtx318 nphases=1 Units=m Rmatrix=[0.76] Xmatrix=[0.71]
New linecode.mtx319 nphases=1 Units=m Rmatrix=[0.46] Xmatrix=[0.66]
New linecode.mtx320 nphases=1 Units=m Rmatrix=[0.21] Xmatrix=[0.96]
New linecode.mtx321 nphases=1 Units=m Rmatrix=[0.18] Xmatrix=[0.60]
New linecode.mtx322 nphases=1 Units=m Rmatrix=[0.45] Xmatrix=[0.70]
New linecode.mtx323 nphases=1 Units=m Rmatrix=[0.31] Xmatrix=[0.46]
New linecode.mtx324 nphases=1 Units=m Rmatrix=[0.50] Xmatrix=[0.19]
New linecode.mtx325 nphases=1 Units=m Rmatrix=[0.85] Xmatrix=[0.43]
New linecode.mtx326 nphases=1 Units=m Rmatrix=[0.15] Xmatrix=[0.86]
New linecode.mtx327 nphases=1 Units=m Rmatrix=[0.45] Xmatrix=[0.60]
New linecode.mtx328 nphases=1 Units=m Rmatrix=[0.43] Xmatrix=[0.75]
New linecode.mtx329 nphases=1 Units=m Rmatrix=[0.80] Xmatrix=[0.26]
New linecode.mtx330 nphases=1 Units=m Rmatrix=[0.13] Xmatrix=[0.59]
New linecode.mtx331 nphases=1 Units=m Rmatrix=[0.93] Xmatrix=[0.17]
New linecode.mtx332 nphases=1 Units=m Rmatrix=[0.86] Xmatrix=[0.17]
New linecode.mtx333 nphases=1 Units=m Rmatrix=[0.18] Xmatrix=[0.78]
New linecode.mtx334 nphases=1 Units=m Rmatrix=[0.29] Xmatrix=[0.31]
New linecode.mtx335 nphases=1 Units=m Rmatrix=[0.77] Xmatrix=[0.48]
New linecode.mtx336 nphases=1 Units=m Rmatrix=[0.34] Xmatrix=[0.57]
New linecode.mtx337 nphases=1 Units=m Rmatrix=[0.37] Xmatrix=[0.76]
New linecode.mtx338 nphases=1 Units=m Rmatrix=[0.34] Xmatrix=[0.06]
New linecode.mtx339 nphases=1 Units=m Rmatrix=[0.61] Xmatrix=[0.18]
New linecode.mtx340 nphases=1 Units=m Rmatrix=[0.78] Xmatrix=[0.57]
New linecode.mtx341 nphases=1 Units=m Rmatrix=[0.84] Xmatrix=[0.88]
New linecode.mtx342 nphases=1 Units=m Rmatrix=[0.11] Xmatrix=[0.89]
New linecode.mtx343 nphases=1 Units=m Rmatrix=[0.88] Xmatrix=[0.90]
New linecode.mtx344 nphases=1 Units=m Rmatrix=[0.11] Xmatrix=[0.34]
New linecode.mtx345 nphases=1 Units=m Rmatrix=[0.69] Xmatrix=[0.82]
New linecode.mtx346 nphases=1 Units=m Rmatrix=[0.61] Xmatrix=[0.72]
New linecode.mtx347 nphases=1 Units=m Rmatrix=[0.17] Xmatrix=[0.46]
New linecode.mtx348 nphases=1 Units=m Rmatrix=[0.59] Xmatrix=[0.93]
New linecode.mtx349 nphases=1 Units=m Rmatrix=[0.84] Xmatrix=[0.43]
New linecode.mtx350 nphases=1 Units=m Rmatrix=[0.55] Xmatrix=[0.64]
New linecode.mtx351 nphases=1 Units=m Rmatrix=[0.74] Xmatrix=[0.01]
New linecode.mtx352 nphases=1 Units=m Rmatrix=[0.84] Xmatrix=[0.42]
New linecode.mtx353 nphases=1 Units=m Rmatrix=[0.20] Xmatrix=[0.31]
New linecode.mtx354 nphases=1 Units=m Rmatrix=[0.49] Xmatrix=[0.98]
New linecode.mtx355 nphases=1 Units=m Rmatrix=[0.79] Xmatrix=[0.73]
New linecode.mtx356 nphases=1 Units=m Rmatrix=[0.46] Xmatrix=[0.43]
New linecode.mtx357 nphases=1 Units=m Rmatrix=[0.38] Xmatrix=[0.21]
New linecode.mtx358 nphases=1 Units=m Rmatrix=[0.70] Xmatrix=[0.08]
New linecode.mtx359 nphases=1 Units=m Rmatrix=[0.24] Xmatrix=[0.34]
New linecode.mtx360 nphases=1 Units=m Rmatrix=[0.50] Xmatrix=[0.76]
New linecode.mtx361 nphases=1 Units=m Rmatrix=[0.70] Xmatrix=[0.03]
New linecode.mtx362 nphases=1 Units=m Rmatrix=[0.42] Xmatrix=[0.17]
New linecode.mtx363 nphases=1 Units=m Rmatrix=[0.26] Xmatrix=[0.52]
New linecode.mtx364 nphases=1 Units=m Rmatrix=[0.24] Xmatrix=[0.38]
New linecode.mtx365 nphases=1 Units=m Rmatrix=[0.46] Xmatrix=[0.47]
New linecode.mtx366 nphases=1 Units=m Rmatrix=[0.70] Xmatrix=[0.11]
New linecode.mtx367 nphases=1 Units=m Rmatrix=[0.98] Xmatrix=[0.56]
New linecode.mtx368 nphases=1 Units=m Rmatrix=[0.91] Xmatrix=[0.94]
New linecode.mtx369 nphases=1 Units=m Rmatrix=[0.86] Xmatrix=[0.90]
New linecode.mtx370 nphases=1 Units=m Rmatrix=[0.44] Xmatrix=[0.97]
New linecode.mtx371 nphases=1 Units=m Rmatrix=[0.55] Xmatrix=[0.41]
New linecode.mtx372 nphases=1 Units=m Rmatrix=[0.72] Xmatrix=[0.65]
New linecode.mtx373 nphases=1 Units=m Rmatrix=[0.17] Xmatrix=[0.64]
New linecode.mtx374 nphases=1 Units=m Rmatrix=[0.50] Xmatrix=[0.76]
New linecode.mtx375 nphases=1 Units=m Rmatrix=[0.20] Xmatrix=[0.88]
New linecode.mtx376 nphases=1 Units=m Rmatrix=[0.74] Xmatrix=[0.87]
New linecode.mtx377 nphases=1 Units=m Rmatrix=[0.25] Xmatrix=[0.13]
New linecode.mtx378 nphases=1 Units=m Rmatrix=[0.47] Xmatrix=[0.27]
New linecode.mtx379 nphases=1 Units=m Rmatrix=[0.81] Xmatrix=[0.01]
New linecode.mtx380 nphases=1 Units=m Rmatrix=[0.90] Xmatrix=[0.70]
New linecode.mtx381 nphases=1 Units=m Rmatrix=[0.51] Xmatrix=[0.69]
New linecode.mtx382 nphases=1 Units=m Rmatrix=[0.46] Xmatrix=[0.99]
New linecode.mtx383 nphases=1 Units=m Rmatrix=[0.45] Xmatrix=[0.77]
New linecode.mtx384 nphases=1 Units=m Rmatrix=[0.79] Xmatrix=[0.45]
New linecode.mtx385 nphases=1 Units=m Rmatrix=[0.53] Xmatrix=[0.59]
New linecode.mtx386 nphases=1 Units=m Rmatrix=[0.99] Xmatrix=[0.42]
New linecode.mtx387 nphases=1 Units=m Rmatrix=[0.87] Xmatrix=[0.64]
New linecode.mtx388 nphases=1 Units=m Rmatrix=[0.91] Xmatrix=[0.41]
New linecode.mtx389 nphases=1 Units=m Rmatrix=[0.26] Xmatrix=[0.25]
New linecode.mtx390 nphases=1 Units=m Rmatrix=[0.09] Xmatrix=[0.08]
New linecode.mtx391 nphases=1 Units=m Rmatrix=[0.98] Xmatrix=[0.78]
New linecode.mtx392 nphases=1 Units=m Rmatrix=[0.54] Xmatrix=[0.19]
New linecode.mtx393 nphases=1 Units=m Rmatrix=[0.37] Xmatrix=[0.50]
New linecode.mtx394 nphases=1 Units=m Rmatrix=[0.93] Xmatrix=[0.78]
New linecode.mtx395 nphases=1 Units=m Rmatrix=[0.72] Xmatrix=[0.55]
New linecode.mtx396 nphases=1 Units=m Rmatrix=[0.87] Xmatrix=[0.07]
New linecode.mtx397 nphases=1 Units=m Rmatrix=[0.08] Xmatrix=[0.45]
New linecode.mtx398 nphases=1 Units=m Rmatrix=[0.89] Xmatrix=[0.27]
New linecode.mtx399 nphases=1 Units=m Rmatrix=[0.21] Xmatrix=[0.87]
New linecode.mtx400 nphases=1 Units=m Rmatrix=[0.61] Xmatrix=[0.11]
New linecode.mtx401 nphases=1 Units=m Rmatrix=[0.32] Xmatrix=[0.26]
New linecode.mtx402 nphases=1 Units=m Rmatrix=[0.73] Xmatrix=[0.19]
New linecode.mtx403 nphases=1 Units=m Rmatrix=[0.06] Xmatrix=[0.80]
New linecode.mtx404 nphases=1 Units=m Rmatrix=[0.57] Xmatrix=[0.33]
New linecode.mtx405 nphases=1 Units=m Rmatrix=[0.31] Xmatrix=[0.96]
New linecode.mtx406 nphases=1 Units=m Rmatrix=[0.43] Xmatrix=[0.73]
New linecode.mtx407 nphases=1 Units=m Rmatrix=[0.57] Xmatrix=[0.66]
New linecode.mtx408 nphases=1 Units=m Rmatrix=[0.28] Xmatrix=[0.77]
New linecode.mtx409 nphases=1 Units=m Rmatrix=[0.16] Xmatrix=[0.03]
New linecode.mtx410 nphases=1 Units=m Rmatrix=[0.91] Xmatrix=[0.98]
New linecode.mtx411 nphases=1 Units=m Rmatrix=[0.65] Xmatrix=[0.02]
New linecode.mtx412 nphases=1 Units=m Rmatrix=[0.51] Xmatrix=[0.45]
New linecode.mtx413 nphases=1 Units=m Rmatrix=[0.61] Xmatrix=[0.18]
New linecode.mtx414 nphases=1 Units=m Rmatrix=[0.33] Xmatrix=[0.64]
New linecode.mtx415 nphases=1 Units=m Rmatrix=[0.03] Xmatrix=[0.76]
New linecode.mtx416 nphases=1 Units=m Rmatrix=[0.99] Xmatrix=[0.63]
New linecode.mtx417 nphases=1 Units=m Rmatrix=[0.95] Xmatrix=[0.66]
New linecode.mtx418 nphases=1 Units=m Rmatrix=[0.19] Xmatrix=[0.18]
New linecode.mtx419 nphases=1 Units=m Rmatrix=[0.22] Xmatrix=[0.95]
New linecode.mtx420 nphases=1 Units=m Rmatrix=[0.82] Xmatrix=[0.02]
New linecode.mtx421 nphases=1 Units=m Rmatrix=[0.77] Xmatrix=[0.89]
New linecode.mtx422 nphases=1 Units=m Rmatrix=[0.67] Xmatrix=[0.59]
New linecode.mtx423 nphases=1 Units=m Rmatrix=[0.85] Xmatrix=[0.10]
New linecode.mtx424 nphases=1 Units=m Rmatrix=[0.72] Xmatrix=[0.73]
New linecode.mtx425 nphases=1 Units=m Rmatrix=[0.53] Xmatrix=[0.11]
New linecode.mtx426 nphases=1 Units=m Rmatrix=[0.15] Xmatrix=[0.30]
New linecode.mtx427 nphases=1 Units=m Rmatrix=[0.44] Xmatrix=[0.64]
New linecode.mtx428 nphases=1 Units=m Rmatrix=[0.24] Xmatrix=[0.41]
New linecode.mtx429 nphases=1 Units=m Rmatrix=[0.23] Xmatrix=[0.50]
New linecode.mtx430 nphases=1 Units=m Rmatrix=[0.33] Xmatrix=[0.72]
New linecode.mtx431 nphases=1 Units=m Rmatrix=[0.80] Xmatrix=[0.65]
New linecode.mtx432 nphases=1 Units=m Rmatrix=[0.30] Xmatrix=[0.54]
New linecode.mtx433 nphases=1 Units=m Rmatrix=[0.53] Xmatrix=[0.49]
New linecode.mtx434 nphases=1 Units=m Rmatrix=[0.28] Xmatrix=[0.53]
New linecode.mtx435 nphases=1 Units=m Rmatrix=[0.35] Xmatrix=[0.96]
New linecode.mtx436 nphases=1 Units=m Rmatrix=[0.70] Xmatrix=[0.84]
New linecode.mtx437 nphases=1 Units=m Rmatrix=[0.65] Xmatrix=[0.57]
New linecode.mtx438 nphases=1 Units=m Rmatrix=[0.70] Xmatrix=[0.33]