Clear
Set DefaultBaseFrequency=60
new circuit.LANL255Nodeckt
~ Angle=45
~ basekv=0.4 pu=1 phases=1 bus1=7777.1 enabled=n ! VOLTAGE SOURCE DEFINITION

New linecode.mtx001 nphases=1 Units=m Rmatrix=[0.56] Xmatrix=[0.56]
New linecode.mtx002 nphases=1 Units=m Rmatrix=[0.72] Xmatrix=[0.72]
New linecode.mtx003 nphases=1 Units=m Rmatrix=[0.93] Xmatrix=[0.93]
New linecode.mtx004 nphases=1 Units=m Rmatrix=[0.18] Xmatrix=[0.18]
New linecode.mtx005 nphases=1 Units=m Rmatrix=[0.82] Xmatrix=[0.82]
New linecode.mtx006 nphases=1 Units=m Rmatrix=[0.07] Xmatrix=[0.07]
New linecode.mtx007 nphases=1 Units=m Rmatrix=[0.54] Xmatrix=[0.54]
New linecode.mtx008 nphases=1 Units=m Rmatrix=[0.43] Xmatrix=[0.43]
New linecode.mtx009 nphases=1 Units=m Rmatrix=[0.94] Xmatrix=[0.94]
New linecode.mtx010 nphases=1 Units=m Rmatrix=[0.38] Xmatrix=[0.38]
New linecode.mtx011 nphases=1 Units=m Rmatrix=[0.72] Xmatrix=[0.72]
New linecode.mtx012 nphases=1 Units=m Rmatrix=[0.52] Xmatrix=[0.52]
New linecode.mtx013 nphases=1 Units=m Rmatrix=[0.33] Xmatrix=[0.33]
New linecode.mtx014 nphases=1 Units=m Rmatrix=[0.75] Xmatrix=[0.75]
New linecode.mtx015 nphases=1 Units=m Rmatrix=[0.58] Xmatrix=[0.58]
New linecode.mtx016 nphases=1 Units=m Rmatrix=[0.84] Xmatrix=[0.84]
New linecode.mtx017 nphases=1 Units=m Rmatrix=[0.68] Xmatrix=[0.68]
New linecode.mtx018 nphases=1 Units=m Rmatrix=[0.37] Xmatrix=[0.37]
New linecode.mtx019 nphases=1 Units=m Rmatrix=[0.18] Xmatrix=[0.18]
New linecode.mtx020 nphases=1 Units=m Rmatrix=[0.96] Xmatrix=[0.96]
New linecode.mtx021 nphases=1 Units=m Rmatrix=[0.74] Xmatrix=[0.74]
New linecode.mtx022 nphases=1 Units=m Rmatrix=[0.37] Xmatrix=[0.37]
New linecode.mtx023 nphases=1 Units=m Rmatrix=[0.93] Xmatrix=[0.93]
New linecode.mtx024 nphases=1 Units=m Rmatrix=[0.60] Xmatrix=[0.60]
New linecode.mtx025 nphases=1 Units=m Rmatrix=[0.89] Xmatrix=[0.89]
New linecode.mtx026 nphases=1 Units=m Rmatrix=[0.68] Xmatrix=[0.68]
New linecode.mtx027 nphases=1 Units=m Rmatrix=[0.20] Xmatrix=[0.20]
New linecode.mtx028 nphases=1 Units=m Rmatrix=[0.25] Xmatrix=[0.25]
New linecode.mtx029 nphases=1 Units=m Rmatrix=[0.37] Xmatrix=[0.37]
New linecode.mtx030 nphases=1 Units=m Rmatrix=[0.19] Xmatrix=[0.19]
New linecode.mtx031 nphases=1 Units=m Rmatrix=[0.31] Xmatrix=[0.31]
New linecode.mtx032 nphases=1 Units=m Rmatrix=[0.47] Xmatrix=[0.47]
New linecode.mtx033 nphases=1 Units=m Rmatrix=[0.02] Xmatrix=[0.02]
New linecode.mtx034 nphases=1 Units=m Rmatrix=[0.67] Xmatrix=[0.67]
New linecode.mtx035 nphases=1 Units=m Rmatrix=[0.66] Xmatrix=[0.66]
New linecode.mtx036 nphases=1 Units=m Rmatrix=[0.69] Xmatrix=[0.69]
New linecode.mtx037 nphases=1 Units=m Rmatrix=[0.59] Xmatrix=[0.59]
New linecode.mtx038 nphases=1 Units=m Rmatrix=[0.78] Xmatrix=[0.78]
New linecode.mtx039 nphases=1 Units=m Rmatrix=[0.16] Xmatrix=[0.16]
New linecode.mtx040 nphases=1 Units=m Rmatrix=[0.85] Xmatrix=[0.85]
New linecode.mtx041 nphases=1 Units=m Rmatrix=[0.62] Xmatrix=[0.62]
New linecode.mtx042 nphases=1 Units=m Rmatrix=[0.59] Xmatrix=[0.59]
New linecode.mtx043 nphases=1 Units=m Rmatrix=[0.31] Xmatrix=[0.31]
New linecode.mtx044 nphases=1 Units=m Rmatrix=[0.21] Xmatrix=[0.21]
New linecode.mtx045 nphases=1 Units=m Rmatrix=[0.16] Xmatrix=[0.16]
New linecode.mtx046 nphases=1 Units=m Rmatrix=[0.67] Xmatrix=[0.67]
New linecode.mtx047 nphases=1 Units=m Rmatrix=[0.50] Xmatrix=[0.50]
New linecode.mtx048 nphases=1 Units=m Rmatrix=[0.11] Xmatrix=[0.11]
New linecode.mtx049 nphases=1 Units=m Rmatrix=[0.41] Xmatrix=[0.41]
New linecode.mtx050 nphases=1 Units=m Rmatrix=[0.96] Xmatrix=[0.96]
New linecode.mtx051 nphases=1 Units=m Rmatrix=[0.82] Xmatrix=[0.82]
New linecode.mtx052 nphases=1 Units=m Rmatrix=[0.28] Xmatrix=[0.28]
New linecode.mtx053 nphases=1 Units=m Rmatrix=[0.86] Xmatrix=[0.86]
New linecode.mtx054 nphases=1 Units=m Rmatrix=[0.79] Xmatrix=[0.79]
New linecode.mtx055 nphases=1 Units=m Rmatrix=[0.49] Xmatrix=[0.49]
New linecode.mtx056 nphases=1 Units=m Rmatrix=[0.14] Xmatrix=[0.14]
New linecode.mtx057 nphases=1 Units=m Rmatrix=[0.04] Xmatrix=[0.04]
New linecode.mtx058 nphases=1 Units=m Rmatrix=[0.39] Xmatrix=[0.39]
New linecode.mtx059 nphases=1 Units=m Rmatrix=[0.82] Xmatrix=[0.82]
New linecode.mtx060 nphases=1 Units=m Rmatrix=[0.38] Xmatrix=[0.38]
New linecode.mtx061 nphases=1 Units=m Rmatrix=[0.23] Xmatrix=[0.23]
New linecode.mtx062 nphases=1 Units=m Rmatrix=[0.21] Xmatrix=[0.21]
New linecode.mtx063 nphases=1 Units=m Rmatrix=[0.47] Xmatrix=[0.47]
New linecode.mtx064 nphases=1 Units=m Rmatrix=[0.61] Xmatrix=[0.61]
New linecode.mtx065 nphases=1 Units=m Rmatrix=[0.66] Xmatrix=[0.66]
New linecode.mtx066 nphases=1 Units=m Rmatrix=[0.59] Xmatrix=[0.59]
New linecode.mtx067 nphases=1 Units=m Rmatrix=[0.36] Xmatrix=[0.36]
New linecode.mtx068 nphases=1 Units=m Rmatrix=[0.84] Xmatrix=[0.84]
New linecode.mtx069 nphases=1 Units=m Rmatrix=[0.46] Xmatrix=[0.46]
New linecode.mtx070 nphases=1 Units=m Rmatrix=[0.30] Xmatrix=[0.30]
New linecode.mtx071 nphases=1 Units=m Rmatrix=[0.95] Xmatrix=[0.95]
New linecode.mtx072 nphases=1 Units=m Rmatrix=[0.18] Xmatrix=[0.18]
New linecode.mtx073 nphases=1 Units=m Rmatrix=[0.32] Xmatrix=[0.32]
New linecode.mtx074 nphases=1 Units=m Rmatrix=[0.53] Xmatrix=[0.53]
New linecode.mtx075 nphases=1 Units=m Rmatrix=[0.63] Xmatrix=[0.63]
New linecode.mtx076 nphases=1 Units=m Rmatrix=[0.90] Xmatrix=[0.90]
New linecode.mtx077 nphases=1 Units=m Rmatrix=[0.88] Xmatrix=[0.88]
New linecode.mtx078 nphases=1 Units=m Rmatrix=[0.12] Xmatrix=[0.12]
New linecode.mtx079 nphases=1 Units=m Rmatrix=[0.41] Xmatrix=[0.41]
New linecode.mtx080 nphases=1 Units=m Rmatrix=[0.40] Xmatrix=[0.40]
New linecode.mtx081 nphases=1 Units=m Rmatrix=[0.82] Xmatrix=[0.82]
New linecode.mtx082 nphases=1 Units=m Rmatrix=[0.65] Xmatrix=[0.65]
New linecode.mtx083 nphases=1 Units=m Rmatrix=[0.02] Xmatrix=[0.02]
New linecode.mtx084 nphases=1 Units=m Rmatrix=[0.91] Xmatrix=[0.91]
New linecode.mtx085 nphases=1 Units=m Rmatrix=[0.82] Xmatrix=[0.82]
New linecode.mtx086 nphases=1 Units=m Rmatrix=[0.82] Xmatrix=[0.82]
New linecode.mtx087 nphases=1 Units=m Rmatrix=[0.83] Xmatrix=[0.83]
New linecode.mtx088 nphases=1 Units=m Rmatrix=[0.17] Xmatrix=[0.17]
New linecode.mtx089 nphases=1 Units=m Rmatrix=[0.23] Xmatrix=[0.23]
New linecode.mtx090 nphases=1 Units=m Rmatrix=[0.93] Xmatrix=[0.93]
New linecode.mtx091 nphases=1 Units=m Rmatrix=[0.76] Xmatrix=[0.76]
New linecode.mtx092 nphases=1 Units=m Rmatrix=[0.31] Xmatrix=[0.31]
New linecode.mtx093 nphases=1 Units=m Rmatrix=[0.19] Xmatrix=[0.19]
New linecode.mtx094 nphases=1 Units=m Rmatrix=[0.48] Xmatrix=[0.48]
New linecode.mtx095 nphases=1 Units=m Rmatrix=[0.41] Xmatrix=[0.41]
New linecode.mtx096 nphases=1 Units=m Rmatrix=[0.61] Xmatrix=[0.61]
New linecode.mtx097 nphases=1 Units=m Rmatrix=[0.70] Xmatrix=[0.70]
New linecode.mtx098 nphases=1 Units=m Rmatrix=[0.31] Xmatrix=[0.31]
New linecode.mtx099 nphases=1 Units=m Rmatrix=[0.05] Xmatrix=[0.05]
New linecode.mtx100 nphases=1 Units=m Rmatrix=[0.48] Xmatrix=[0.48]
New linecode.mtx101 nphases=1 Units=m Rmatrix=[0.23] Xmatrix=[0.23]
New linecode.mtx102 nphases=1 Units=m Rmatrix=[0.62] Xmatrix=[0.62]
New linecode.mtx103 nphases=1 Units=m Rmatrix=[0.06] Xmatrix=[0.06]
New linecode.mtx104 nphases=1 Units=m Rmatrix=[0.47] Xmatrix=[0.47]
New linecode.mtx105 nphases=1 Units=m Rmatrix=[0.40] Xmatrix=[0.40]
New linecode.mtx106 nphases=1 Units=m Rmatrix=[0.17] Xmatrix=[0.17]
New linecode.mtx107 nphases=1 Units=m Rmatrix=[0.36] Xmatrix=[0.36]
New linecode.mtx108 nphases=1 Units=m Rmatrix=[0.15] Xmatrix=[0.15]
New linecode.mtx109 nphases=1 Units=m Rmatrix=[0.33] Xmatrix=[0.33]
New linecode.mtx110 nphases=1 Units=m Rmatrix=[0.68] Xmatrix=[0.68]
New linecode.mtx111 nphases=1 Units=m Rmatrix=[0.47] Xmatrix=[0.47]
New linecode.mtx112 nphases=1 Units=m Rmatrix=[0.03] Xmatrix=[0.03]
New linecode.mtx113 nphases=1 Units=m Rmatrix=[0.34] Xmatrix=[0.34]
New linecode.mtx114 nphases=1 Units=m Rmatrix=[0.92] Xmatrix=[0.92]
New linecode.mtx115 nphases=1 Units=m Rmatrix=[0.57] Xmatrix=[0.57]
New linecode.mtx116 nphases=1 Units=m Rmatrix=[0.53] Xmatrix=[0.53]
New linecode.mtx117 nphases=1 Units=m Rmatrix=[0.79] Xmatrix=[0.79]
New linecode.mtx118 nphases=1 Units=m Rmatrix=[0.76] Xmatrix=[0.76]
New linecode.mtx119 nphases=1 Units=m Rmatrix=[0.67] Xmatrix=[0.67]
New linecode.mtx120 nphases=1 Units=m Rmatrix=[0.84] Xmatrix=[0.84]
New linecode.mtx121 nphases=1 Units=m Rmatrix=[0.49] Xmatrix=[0.49]
New linecode.mtx122 nphases=1 Units=m Rmatrix=[0.15] Xmatrix=[0.15]
New linecode.mtx123 nphases=1 Units=m Rmatrix=[0.74] Xmatrix=[0.74]
New linecode.mtx124 nphases=1 Units=m Rmatrix=[0.58] Xmatrix=[0.58]
New linecode.mtx125 nphases=1 Units=m Rmatrix=[0.90] Xmatrix=[0.90]
New linecode.mtx126 nphases=1 Units=m Rmatrix=[0.57] Xmatrix=[0.57]
New linecode.mtx127 nphases=1 Units=m Rmatrix=[0.46] Xmatrix=[0.46]
New linecode.mtx128 nphases=1 Units=m Rmatrix=[0.91] Xmatrix=[0.91]
New linecode.mtx129 nphases=1 Units=m Rmatrix=[0.03] Xmatrix=[0.03]
New linecode.mtx130 nphases=1 Units=m Rmatrix=[0.29] Xmatrix=[0.29]
New linecode.mtx131 nphases=1 Units=m Rmatrix=[0.51] Xmatrix=[0.51]
New linecode.mtx132 nphases=1 Units=m Rmatrix=[0.17] Xmatrix=[0.17]
New linecode.mtx133 nphases=1 Units=m Rmatrix=[0.51] Xmatrix=[0.51]
New linecode.mtx134 nphases=1 Units=m Rmatrix=[0.84] Xmatrix=[0.84]
New linecode.mtx135 nphases=1 Units=m Rmatrix=[0.81] Xmatrix=[0.81]
New linecode.mtx136 nphases=1 Units=m Rmatrix=[0.12] Xmatrix=[0.12]
New linecode.mtx137 nphases=1 Units=m Rmatrix=[0.22] Xmatrix=[0.22]
New linecode.mtx138 nphases=1 Units=m Rmatrix=[0.54] Xmatrix=[0.54]
New linecode.mtx139 nphases=1 Units=m Rmatrix=[0.54] Xmatrix=[0.54]
New linecode.mtx140 nphases=1 Units=m Rmatrix=[0.16] Xmatrix=[0.16]
New linecode.mtx141 nphases=1 Units=m Rmatrix=[0.36] Xmatrix=[0.36]
New linecode.mtx142 nphases=1 Units=m Rmatrix=[0.52] Xmatrix=[0.52]
New linecode.mtx143 nphases=1 Units=m Rmatrix=[0.97] Xmatrix=[0.97]
New linecode.mtx144 nphases=1 Units=m Rmatrix=[0.96] Xmatrix=[0.96]
New linecode.mtx145 nphases=1 Units=m Rmatrix=[0.38] Xmatrix=[0.38]
New linecode.mtx146 nphases=1 Units=m Rmatrix=[0.91] Xmatrix=[0.91]
New linecode.mtx147 nphases=1 Units=m Rmatrix=[0.57] Xmatrix=[0.57]
New linecode.mtx148 nphases=1 Units=m Rmatrix=[0.58] Xmatrix=[0.58]
New linecode.mtx149 nphases=1 Units=m Rmatrix=[0.25] Xmatrix=[0.25]
New linecode.mtx150 nphases=1 Units=m Rmatrix=[0.54] Xmatrix=[0.54]
New linecode.mtx151 nphases=1 Units=m Rmatrix=[0.64] Xmatrix=[0.64]
New linecode.mtx152 nphases=1 Units=m Rmatrix=[0.22] Xmatrix=[0.22]
New linecode.mtx153 nphases=1 Units=m Rmatrix=[0.97] Xmatrix=[0.97]
New linecode.mtx154 nphases=1 Units=m Rmatrix=[0.66] Xmatrix=[0.66]
New linecode.mtx155 nphases=1 Units=m Rmatrix=[0.26] Xmatrix=[0.26]
New linecode.mtx156 nphases=1 Units=m Rmatrix=[0.04] Xmatrix=[0.04]
New linecode.mtx157 nphases=1 Units=m Rmatrix=[0.08] Xmatrix=[0.08]
New linecode.mtx158 nphases=1 Units=m Rmatrix=[0.68] Xmatrix=[0.68]
New linecode.mtx159 nphases=1 Units=m Rmatrix=[0.62] Xmatrix=[0.62]
New linecode.mtx160 nphases=1 Units=m Rmatrix=[0.93] Xmatrix=[0.93]
New linecode.mtx161 nphases=1 Units=m Rmatrix=[0.29] Xmatrix=[0.29]
New linecode.mtx162 nphases=1 Units=m Rmatrix=[0.79] Xmatrix=[0.79]
New linecode.mtx163 nphases=1 Units=m Rmatrix=[0.87] Xmatrix=[0.87]
New linecode.mtx164 nphases=1 Units=m Rmatrix=[0.57] Xmatrix=[0.57]
New linecode.mtx165 nphases=1 Units=m Rmatrix=[0.94] Xmatrix=[0.94]
New linecode.mtx166 nphases=1 Units=m Rmatrix=[0.67] Xmatrix=[0.67]
New linecode.mtx167 nphases=1 Units=m Rmatrix=[0.11] Xmatrix=[0.11]
New linecode.mtx168 nphases=1 Units=m Rmatrix=[0.99] Xmatrix=[0.99]
New linecode.mtx169 nphases=1 Units=m Rmatrix=[0.55] Xmatrix=[0.55]
New linecode.mtx170 nphases=1 Units=m Rmatrix=[0.08] Xmatrix=[0.08]
New linecode.mtx171 nphases=1 Units=m Rmatrix=[0.30] Xmatrix=[0.30]
New linecode.mtx172 nphases=1 Units=m Rmatrix=[0.78] Xmatrix=[0.78]
New linecode.mtx173 nphases=1 Units=m Rmatrix=[0.88] Xmatrix=[0.88]
New linecode.mtx174 nphases=1 Units=m Rmatrix=[0.17] Xmatrix=[0.17]
New linecode.mtx175 nphases=1 Units=m Rmatrix=[0.64] Xmatrix=[0.64]
New linecode.mtx176 nphases=1 Units=m Rmatrix=[0.74] Xmatrix=[0.74]
New linecode.mtx177 nphases=1 Units=m Rmatrix=[0.58] Xmatrix=[0.58]
New linecode.mtx178 nphases=1 Units=m Rmatrix=[0.38] Xmatrix=[0.38]
New linecode.mtx179 nphases=1 Units=m Rmatrix=[0.81] Xmatrix=[0.81]
New linecode.mtx180 nphases=1 Units=m Rmatrix=[0.38] Xmatrix=[0.38]
New linecode.mtx181 nphases=1 Units=m Rmatrix=[0.73] Xmatrix=[0.73]
New linecode.mtx182 nphases=1 Units=m Rmatrix=[0.15] Xmatrix=[0.15]
New linecode.mtx183 nphases=1 Units=m Rmatrix=[0.92] Xmatrix=[0.92]
New linecode.mtx184 nphases=1 Units=m Rmatrix=[0.66] Xmatrix=[0.66]
New linecode.mtx185 nphases=1 Units=m Rmatrix=[0.40] Xmatrix=[0.40]
New linecode.mtx186 nphases=1 Units=m Rmatrix=[0.31] Xmatrix=[0.31]
New linecode.mtx187 nphases=1 Units=m Rmatrix=[0.62] Xmatrix=[0.62]
New linecode.mtx188 nphases=1 Units=m Rmatrix=[0.86] Xmatrix=[0.86]
New linecode.mtx189 nphases=1 Units=m Rmatrix=[0.21] Xmatrix=[0.21]
New linecode.mtx190 nphases=1 Units=m Rmatrix=[0.79] Xmatrix=[0.79]
New linecode.mtx191 nphases=1 Units=m Rmatrix=[0.92] Xmatrix=[0.92]
New linecode.mtx192 nphases=1 Units=m Rmatrix=[0.07] Xmatrix=[0.07]
New linecode.mtx193 nphases=1 Units=m Rmatrix=[0.89] Xmatrix=[0.89]
New linecode.mtx194 nphases=1 Units=m Rmatrix=[0.27] Xmatrix=[0.27]
New linecode.mtx195 nphases=1 Units=m Rmatrix=[0.50] Xmatrix=[0.50]
New linecode.mtx196 nphases=1 Units=m Rmatrix=[0.98] Xmatrix=[0.98]
New linecode.mtx197 nphases=1 Units=m Rmatrix=[0.35] Xmatrix=[0.35]
New linecode.mtx198 nphases=1 Units=m Rmatrix=[0.97] Xmatrix=[0.97]
New linecode.mtx199 nphases=1 Units=m Rmatrix=[0.62] Xmatrix=[0.62]
New linecode.mtx200 nphases=1 Units=m Rmatrix=[0.28] Xmatrix=[0.28]
New linecode.mtx201 nphases=1 Units=m Rmatrix=[0.53] Xmatrix=[0.53]
New linecode.mtx202 nphases=1 Units=m Rmatrix=[0.35] Xmatrix=[0.35]
New linecode.mtx203 nphases=1 Units=m Rmatrix=[0.78] Xmatrix=[0.78]
New linecode.mtx204 nphases=1 Units=m Rmatrix=[0.61] Xmatrix=[0.61]
New linecode.mtx205 nphases=1 Units=m Rmatrix=[0.44] Xmatrix=[0.44]
New linecode.mtx206 nphases=1 Units=m Rmatrix=[0.87] Xmatrix=[0.87]
New linecode.mtx207 nphases=1 Units=m Rmatrix=[0.96] Xmatrix=[0.96]
New linecode.mtx208 nphases=1 Units=m Rmatrix=[0.86] Xmatrix=[0.86]
New linecode.mtx209 nphases=1 Units=m Rmatrix=[0.09] Xmatrix=[0.09]
New linecode.mtx210 nphases=1 Units=m Rmatrix=[0.20] Xmatrix=[0.20]
New linecode.mtx211 nphases=1 Units=m Rmatrix=[0.47] Xmatrix=[0.47]
New linecode.mtx212 nphases=1 Units=m Rmatrix=[0.29] Xmatrix=[0.29]
New linecode.mtx213 nphases=1 Units=m Rmatrix=[0.98] Xmatrix=[0.98]
New linecode.mtx214 nphases=1 Units=m Rmatrix=[0.51] Xmatrix=[0.51]
New linecode.mtx215 nphases=1 Units=m Rmatrix=[0.30] Xmatrix=[0.30]
New linecode.mtx216 nphases=1 Units=m Rmatrix=[0.62] Xmatrix=[0.62]
New linecode.mtx217 nphases=1 Units=m Rmatrix=[0.35] Xmatrix=[0.35]
New linecode.mtx218 nphases=1 Units=m Rmatrix=[0.98] Xmatrix=[0.98]
New linecode.mtx219 nphases=1 Units=m Rmatrix=[0.63] Xmatrix=[0.63]
New linecode.mtx220 nphases=1 Units=m Rmatrix=[0.66] Xmatrix=[0.66]
New linecode.mtx221 nphases=1 Units=m Rmatrix=[0.46] Xmatrix=[0.46]
New linecode.mtx222 nphases=1 Units=m Rmatrix=[0.38] Xmatrix=[0.38]
New linecode.mtx223 nphases=1 Units=m Rmatrix=[0.35] Xmatrix=[0.35]
New linecode.mtx224 nphases=1 Units=m Rmatrix=[0.33] Xmatrix=[0.33]
New linecode.mtx225 nphases=1 Units=m Rmatrix=[0.07] Xmatrix=[0.07]
New linecode.mtx226 nphases=1 Units=m Rmatrix=[0.68] Xmatrix=[0.68]
New linecode.mtx227 nphases=1 Units=m Rmatrix=[0.14] Xmatrix=[0.14]
New linecode.mtx228 nphases=1 Units=m Rmatrix=[0.65] Xmatrix=[0.65]
New linecode.mtx229 nphases=1 Units=m Rmatrix=[0.30] Xmatrix=[0.30]
New linecode.mtx230 nphases=1 Units=m Rmatrix=[0.27] Xmatrix=[0.27]
New linecode.mtx231 nphases=1 Units=m Rmatrix=[0.53] Xmatrix=[0.53]
New linecode.mtx232 nphases=1 Units=m Rmatrix=[0.99] Xmatrix=[0.99]
New linecode.mtx233 nphases=1 Units=m Rmatrix=[0.96] Xmatrix=[0.96]
New linecode.mtx234 nphases=1 Units=m Rmatrix=[0.17] Xmatrix=[0.17]
New linecode.mtx235 nphases=1 Units=m Rmatrix=[0.09] Xmatrix=[0.09]
New linecode.mtx236 nphases=1 Units=m Rmatrix=[0.51] Xmatrix=[0.51]
New linecode.mtx237 nphases=1 Units=m Rmatrix=[0.04] Xmatrix=[0.04]
New linecode.mtx238 nphases=1 Units=m Rmatrix=[0.16] Xmatrix=[0.16]
New linecode.mtx239 nphases=1 Units=m Rmatrix=[0.16] Xmatrix=[0.16]
New linecode.mtx240 nphases=1 Units=m Rmatrix=[0.06] Xmatrix=[0.06]
New linecode.mtx241 nphases=1 Units=m Rmatrix=[0.25] Xmatrix=[0.25]
New linecode.mtx242 nphases=1 Units=m Rmatrix=[0.65] Xmatrix=[0.65]
New linecode.mtx243 nphases=1 Units=m Rmatrix=[0.27] Xmatrix=[0.27]
New linecode.mtx244 nphases=1 Units=m Rmatrix=[0.08] Xmatrix=[0.08]
New linecode.mtx245 nphases=1 Units=m Rmatrix=[0.37] Xmatrix=[0.37]
New linecode.mtx246 nphases=1 Units=m Rmatrix=[0.93] Xmatrix=[0.93]
New linecode.mtx247 nphases=1 Units=m Rmatrix=[0.08] Xmatrix=[0.08]
New linecode.mtx248 nphases=1 Units=m Rmatrix=[0.77] Xmatrix=[0.77]
New linecode.mtx249 nphases=1 Units=m Rmatrix=[0.86] Xmatrix=[0.86]
New linecode.mtx250 nphases=1 Units=m Rmatrix=[0.40] Xmatrix=[0.40]
New linecode.mtx251 nphases=1 Units=m Rmatrix=[0.98] Xmatrix=[0.98]
New linecode.mtx252 nphases=1 Units=m Rmatrix=[0.71] Xmatrix=[0.71]

!LOAD DEFINITIONS  -- kV is vm_nom and kW is pd_nom
New Load.335  Bus1=335.1  Phases=1 Conn=POWER  Model=1   kW=226 kvar=226 vminpu=0 vmaxpu=12
New Load.326  Bus1=326.1  Phases=1 Conn=POWER  Model=1   kW=967 kvar=967 vminpu=0 vmaxpu=12
New Load.299  Bus1=299.1  Phases=1 Conn=POWER  Model=1   kW=119 kvar=119 vminpu=0 vmaxpu=12
New Load.168  Bus1=168.1  Phases=1 Conn=POWER  Model=1   kW=878 kvar=878 vminpu=0 vmaxpu=12
New Load.159  Bus1=159.1  Phases=1 Conn=POWER  Model=1   kW=138 kvar=138 vminpu=0 vmaxpu=12
New Load.228  Bus1=228.1  Phases=1 Conn=POWER  Model=1   kW=422 kvar=422 vminpu=0 vmaxpu=12
New Load.332  Bus1=332.1  Phases=1 Conn=POWER  Model=1   kW=777 kvar=777 vminpu=0 vmaxpu=12
New Load.270  Bus1=270.1  Phases=1 Conn=POWER  Model=1   kW=662 kvar=662 vminpu=0 vmaxpu=12
New Load.227  Bus1=227.1  Phases=1 Conn=POWER  Model=1   kW=846 kvar=846 vminpu=0 vmaxpu=12
New Load.190  Bus1=190.1  Phases=1 Conn=POWER  Model=1   kW=466 kvar=466 vminpu=0 vmaxpu=12
New Load.223  Bus1=223.1  Phases=1 Conn=POWER  Model=1   kW=940 kvar=940 vminpu=0 vmaxpu=12
New Load.297  Bus1=297.1  Phases=1 Conn=POWER  Model=1   kW=581 kvar=581 vminpu=0 vmaxpu=12
New Load.289  Bus1=289.1  Phases=1 Conn=POWER  Model=1   kW=929 kvar=929 vminpu=0 vmaxpu=12
New Load.250  Bus1=250.1  Phases=1 Conn=POWER  Model=1   kW=302 kvar=302 vminpu=0 vmaxpu=12
New Load.230  Bus1=230.1  Phases=1 Conn=POWER  Model=1   kW=550 kvar=550 vminpu=0 vmaxpu=12
New Load.258  Bus1=258.1  Phases=1 Conn=POWER  Model=1   kW=818 kvar=818 vminpu=0 vmaxpu=12
New Load.328  Bus1=328.1  Phases=1 Conn=POWER  Model=1   kW=385 kvar=385 vminpu=0 vmaxpu=12
New Load.204  Bus1=204.1  Phases=1 Conn=POWER  Model=1   kW=100 kvar=100 vminpu=0 vmaxpu=12
New Load.160  Bus1=160.1  Phases=1 Conn=POWER  Model=1   kW=811 kvar=811 vminpu=0 vmaxpu=12
New Load.149  Bus1=149.1  Phases=1 Conn=POWER  Model=1   kW=878 kvar=878 vminpu=0 vmaxpu=12
New Load.184  Bus1=184.1  Phases=1 Conn=POWER  Model=1   kW=131 kvar=131 vminpu=0 vmaxpu=12
New Load.122  Bus1=122.1  Phases=1 Conn=POWER  Model=1   kW=614 kvar=614 vminpu=0 vmaxpu=12
New Load.253  Bus1=253.1  Phases=1 Conn=POWER  Model=1   kW=595 kvar=595 vminpu=0 vmaxpu=12
New Load.302  Bus1=302.1  Phases=1 Conn=POWER  Model=1   kW=935 kvar=935 vminpu=0 vmaxpu=12
New Load.175  Bus1=175.1  Phases=1 Conn=POWER  Model=1   kW=841 kvar=841 vminpu=0 vmaxpu=12
New Load.143  Bus1=143.1  Phases=1 Conn=POWER  Model=1   kW=764 kvar=764 vminpu=0 vmaxpu=12
New Load.112  Bus1=112.1  Phases=1 Conn=POWER  Model=1   kW=283 kvar=283 vminpu=0 vmaxpu=12
New Load.293  Bus1=293.1  Phases=1 Conn=POWER  Model=1   kW=930 kvar=930 vminpu=0 vmaxpu=12
New Load.137  Bus1=137.1  Phases=1 Conn=POWER  Model=1   kW=436 kvar=436 vminpu=0 vmaxpu=12
New Load.323  Bus1=323.1  Phases=1 Conn=POWER  Model=1   kW=232 kvar=232 vminpu=0 vmaxpu=12
New Load.318  Bus1=318.1  Phases=1 Conn=POWER  Model=1   kW=853 kvar=853 vminpu=0 vmaxpu=12
New Load.172  Bus1=172.1  Phases=1 Conn=POWER  Model=1   kW=671 kvar=671 vminpu=0 vmaxpu=12
New Load.333  Bus1=333.1  Phases=1 Conn=POWER  Model=1   kW=131 kvar=131 vminpu=0 vmaxpu=12
New Load.350  Bus1=350.1  Phases=1 Conn=POWER  Model=1   kW=290 kvar=290 vminpu=0 vmaxpu=12
New Load.292  Bus1=292.1  Phases=1 Conn=POWER  Model=1   kW=707 kvar=707 vminpu=0 vmaxpu=12
New Load.192  Bus1=192.1  Phases=1 Conn=POWER  Model=1   kW=617 kvar=617 vminpu=0 vmaxpu=12
New Load.252  Bus1=252.1  Phases=1 Conn=POWER  Model=1   kW=391 kvar=391 vminpu=0 vmaxpu=12
New Load.341  Bus1=341.1  Phases=1 Conn=POWER  Model=1   kW=465 kvar=465 vminpu=0 vmaxpu=12
New Load.167  Bus1=167.1  Phases=1 Conn=POWER  Model=1   kW=127 kvar=127 vminpu=0 vmaxpu=12
New Load.127  Bus1=127.1  Phases=1 Conn=POWER  Model=1   kW=756 kvar=756 vminpu=0 vmaxpu=12
New Load.123  Bus1=123.1  Phases=1 Conn=POWER  Model=1   kW=206 kvar=206 vminpu=0 vmaxpu=12
New Load.254  Bus1=254.1  Phases=1 Conn=POWER  Model=1   kW=197 kvar=197 vminpu=0 vmaxpu=12
New Load.300  Bus1=300.1  Phases=1 Conn=POWER  Model=1   kW=842 kvar=842 vminpu=0 vmaxpu=12
New Load.257  Bus1=257.1  Phases=1 Conn=POWER  Model=1   kW=747 kvar=747 vminpu=0 vmaxpu=12
New Load.179  Bus1=179.1  Phases=1 Conn=POWER  Model=1   kW=773 kvar=773 vminpu=0 vmaxpu=12
New Load.242  Bus1=242.1  Phases=1 Conn=POWER  Model=1   kW=237 kvar=237 vminpu=0 vmaxpu=12
New Load.260  Bus1=260.1  Phases=1 Conn=POWER  Model=1   kW=668 kvar=668 vminpu=0 vmaxpu=12
New Load.239  Bus1=239.1  Phases=1 Conn=POWER  Model=1   kW=655 kvar=655 vminpu=0 vmaxpu=12
New Load.317  Bus1=317.1  Phases=1 Conn=POWER  Model=1   kW=929 kvar=929 vminpu=0 vmaxpu=12
New Load.197  Bus1=197.1  Phases=1 Conn=POWER  Model=1   kW=931 kvar=931 vminpu=0 vmaxpu=12
New Load.131  Bus1=131.1  Phases=1 Conn=POWER  Model=1   kW=610 kvar=610 vminpu=0 vmaxpu=12
New Load.316  Bus1=316.1  Phases=1 Conn=POWER  Model=1   kW=573 kvar=573 vminpu=0 vmaxpu=12
New Load.276  Bus1=276.1  Phases=1 Conn=POWER  Model=1   kW=262 kvar=262 vminpu=0 vmaxpu=12
New Load.263  Bus1=263.1  Phases=1 Conn=POWER  Model=1   kW=417 kvar=417 vminpu=0 vmaxpu=12
New Load.244  Bus1=244.1  Phases=1 Conn=POWER  Model=1   kW=610 kvar=610 vminpu=0 vmaxpu=12
New Load.295  Bus1=295.1  Phases=1 Conn=POWER  Model=1   kW=432 kvar=432 vminpu=0 vmaxpu=12
New Load.139  Bus1=139.1  Phases=1 Conn=POWER  Model=1   kW=847 kvar=847 vminpu=0 vmaxpu=12
New Load.181  Bus1=181.1  Phases=1 Conn=POWER  Model=1   kW=942 kvar=942 vminpu=0 vmaxpu=12
New Load.105  Bus1=105.1  Phases=1 Conn=POWER  Model=1   kW=116 kvar=116 vminpu=0 vmaxpu=12
New Load.309  Bus1=309.1  Phases=1 Conn=POWER  Model=1   kW=994 kvar=994 vminpu=0 vmaxpu=12
New Load.162  Bus1=162.1  Phases=1 Conn=POWER  Model=1   kW=489 kvar=489 vminpu=0 vmaxpu=12
New Load.303  Bus1=303.1  Phases=1 Conn=POWER  Model=1   kW=886 kvar=886 vminpu=0 vmaxpu=12
New Load.208  Bus1=208.1  Phases=1 Conn=POWER  Model=1   kW=332 kvar=332 vminpu=0 vmaxpu=12
New Load.214  Bus1=214.1  Phases=1 Conn=POWER  Model=1   kW=384 kvar=384 vminpu=0 vmaxpu=12
New Load.120  Bus1=120.1  Phases=1 Conn=POWER  Model=1   kW=100 kvar=100 vminpu=0 vmaxpu=12
New Load.224  Bus1=224.1  Phases=1 Conn=POWER  Model=1   kW=106 kvar=106 vminpu=0 vmaxpu=12
New Load.117  Bus1=117.1  Phases=1 Conn=POWER  Model=1   kW=643 kvar=643 vminpu=0 vmaxpu=12
New Load.255  Bus1=255.1  Phases=1 Conn=POWER  Model=1   kW=899 kvar=899 vminpu=0 vmaxpu=12
New Load.178  Bus1=178.1  Phases=1 Conn=POWER  Model=1   kW=913 kvar=913 vminpu=0 vmaxpu=12
New Load.275  Bus1=275.1  Phases=1 Conn=POWER  Model=1   kW=128 kvar=128 vminpu=0 vmaxpu=12
New Load.176  Bus1=176.1  Phases=1 Conn=POWER  Model=1   kW=665 kvar=665 vminpu=0 vmaxpu=12
New Load.182  Bus1=182.1  Phases=1 Conn=POWER  Model=1   kW=751 kvar=751 vminpu=0 vmaxpu=12
New Load.225  Bus1=225.1  Phases=1 Conn=POWER  Model=1   kW=352 kvar=352 vminpu=0 vmaxpu=12
New Load.195  Bus1=195.1  Phases=1 Conn=POWER  Model=1   kW=654 kvar=654 vminpu=0 vmaxpu=12
New Load.286  Bus1=286.1  Phases=1 Conn=POWER  Model=1   kW=671 kvar=671 vminpu=0 vmaxpu=12
New Load.249  Bus1=249.1  Phases=1 Conn=POWER  Model=1   kW=457 kvar=457 vminpu=0 vmaxpu=12
New Load.161  Bus1=161.1  Phases=1 Conn=POWER  Model=1   kW=744 kvar=744 vminpu=0 vmaxpu=12
New Load.202  Bus1=202.1  Phases=1 Conn=POWER  Model=1   kW=612 kvar=612 vminpu=0 vmaxpu=12
New Load.346  Bus1=346.1  Phases=1 Conn=POWER  Model=1   kW=247 kvar=247 vminpu=0 vmaxpu=12
New Load.146  Bus1=146.1  Phases=1 Conn=POWER  Model=1   kW=737 kvar=737 vminpu=0 vmaxpu=12
New Load.142  Bus1=142.1  Phases=1 Conn=POWER  Model=1   kW=610 kvar=610 vminpu=0 vmaxpu=12
New Load.219  Bus1=219.1  Phases=1 Conn=POWER  Model=1   kW=500 kvar=500 vminpu=0 vmaxpu=12
New Load.256  Bus1=256.1  Phases=1 Conn=POWER  Model=1   kW=460 kvar=460 vminpu=0 vmaxpu=12
New Load.291  Bus1=291.1  Phases=1 Conn=POWER  Model=1   kW=934 kvar=934 vminpu=0 vmaxpu=12
New Load.203  Bus1=203.1  Phases=1 Conn=POWER  Model=1   kW=136 kvar=136 vminpu=0 vmaxpu=12
New Load.308  Bus1=308.1  Phases=1 Conn=POWER  Model=1   kW=613 kvar=613 vminpu=0 vmaxpu=12
New Load.113  Bus1=113.1  Phases=1 Conn=POWER  Model=1   kW=714 kvar=714 vminpu=0 vmaxpu=12
New Load.110  Bus1=110.1  Phases=1 Conn=POWER  Model=1   kW=889 kvar=889 vminpu=0 vmaxpu=12
New Load.322  Bus1=322.1  Phases=1 Conn=POWER  Model=1   kW=987 kvar=987 vminpu=0 vmaxpu=12
New Load.157  Bus1=157.1  Phases=1 Conn=POWER  Model=1   kW=147 kvar=147 vminpu=0 vmaxpu=12
New Load.231  Bus1=231.1  Phases=1 Conn=POWER  Model=1   kW=416 kvar=416 vminpu=0 vmaxpu=12
New Load.165  Bus1=165.1  Phases=1 Conn=POWER  Model=1   kW=811 kvar=811 vminpu=0 vmaxpu=12
New Load.327  Bus1=327.1  Phases=1 Conn=POWER  Model=1   kW=798 kvar=798 vminpu=0 vmaxpu=12
New Load.284  Bus1=284.1  Phases=1 Conn=POWER  Model=1   kW=496 kvar=496 vminpu=0 vmaxpu=12
New Load.200  Bus1=200.1  Phases=1 Conn=POWER  Model=1   kW=857 kvar=857 vminpu=0 vmaxpu=12
New Load.171  Bus1=171.1  Phases=1 Conn=POWER  Model=1   kW=637 kvar=637 vminpu=0 vmaxpu=12
New Load.233  Bus1=233.1  Phases=1 Conn=POWER  Model=1   kW=322 kvar=322 vminpu=0 vmaxpu=12
New Load.345  Bus1=345.1  Phases=1 Conn=POWER  Model=1   kW=525 kvar=525 vminpu=0 vmaxpu=12
New Load.319  Bus1=319.1  Phases=1 Conn=POWER  Model=1   kW=575 kvar=575 vminpu=0 vmaxpu=12
New Load.273  Bus1=273.1  Phases=1 Conn=POWER  Model=1   kW=348 kvar=348 vminpu=0 vmaxpu=12
New Load.130  Bus1=130.1  Phases=1 Conn=POWER  Model=1   kW=853 kvar=853 vminpu=0 vmaxpu=12
New Load.312  Bus1=312.1  Phases=1 Conn=POWER  Model=1   kW=733 kvar=733 vminpu=0 vmaxpu=12
New Load.247  Bus1=247.1  Phases=1 Conn=POWER  Model=1   kW=517 kvar=517 vminpu=0 vmaxpu=12
New Load.108  Bus1=108.1  Phases=1 Conn=POWER  Model=1   kW=226 kvar=226 vminpu=0 vmaxpu=12
New Load.344  Bus1=344.1  Phases=1 Conn=POWER  Model=1   kW=317 kvar=317 vminpu=0 vmaxpu=12
New Load.251  Bus1=251.1  Phases=1 Conn=POWER  Model=1   kW=635 kvar=635 vminpu=0 vmaxpu=12
New Load.170  Bus1=170.1  Phases=1 Conn=POWER  Model=1   kW=628 kvar=628 vminpu=0 vmaxpu=12
New Load.147  Bus1=147.1  Phases=1 Conn=POWER  Model=1   kW=440 kvar=440 vminpu=0 vmaxpu=12
New Load.342  Bus1=342.1  Phases=1 Conn=POWER  Model=1   kW=408 kvar=408 vminpu=0 vmaxpu=12
New Load.186  Bus1=186.1  Phases=1 Conn=POWER  Model=1   kW=591 kvar=591 vminpu=0 vmaxpu=12
New Load.180  Bus1=180.1  Phases=1 Conn=POWER  Model=1   kW=965 kvar=965 vminpu=0 vmaxpu=12
New Load.135  Bus1=135.1  Phases=1 Conn=POWER  Model=1   kW=145 kvar=145 vminpu=0 vmaxpu=12
New Load.103  Bus1=103.1  Phases=1 Conn=POWER  Model=1   kW=586 kvar=586 vminpu=0 vmaxpu=12
New Load.355  Bus1=355.1  Phases=1 Conn=POWER  Model=1   kW=176 kvar=176 vminpu=0 vmaxpu=12
New Load.109  Bus1=109.1  Phases=1 Conn=POWER  Model=1   kW=633 kvar=633 vminpu=0 vmaxpu=12
New Load.320  Bus1=320.1  Phases=1 Conn=POWER  Model=1   kW=955 kvar=955 vminpu=0 vmaxpu=12
New Load.217  Bus1=217.1  Phases=1 Conn=POWER  Model=1   kW=245 kvar=245 vminpu=0 vmaxpu=12
New Load.334  Bus1=334.1  Phases=1 Conn=POWER  Model=1   kW=808 kvar=808 vminpu=0 vmaxpu=12
New Load.183  Bus1=183.1  Phases=1 Conn=POWER  Model=1   kW=623 kvar=623 vminpu=0 vmaxpu=12
New Load.155  Bus1=155.1  Phases=1 Conn=POWER  Model=1   kW=493 kvar=493 vminpu=0 vmaxpu=12
New Load.106  Bus1=106.1  Phases=1 Conn=POWER  Model=1   kW=790 kvar=790 vminpu=0 vmaxpu=12
New Load.111  Bus1=111.1  Phases=1 Conn=POWER  Model=1   kW=370 kvar=370 vminpu=0 vmaxpu=12
New Load.141  Bus1=141.1  Phases=1 Conn=POWER  Model=1   kW=804 kvar=804 vminpu=0 vmaxpu=12
New Load.287  Bus1=287.1  Phases=1 Conn=POWER  Model=1   kW=627 kvar=627 vminpu=0 vmaxpu=12
New Load.213  Bus1=213.1  Phases=1 Conn=POWER  Model=1   kW=692 kvar=692 vminpu=0 vmaxpu=12
New Load.340  Bus1=340.1  Phases=1 Conn=POWER  Model=1   kW=115 kvar=115 vminpu=0 vmaxpu=12
New Load.278  Bus1=278.1  Phases=1 Conn=POWER  Model=1   kW=176 kvar=176 vminpu=0 vmaxpu=12
New Load.265  Bus1=265.1  Phases=1 Conn=POWER  Model=1   kW=958 kvar=958 vminpu=0 vmaxpu=12
New Load.215  Bus1=215.1  Phases=1 Conn=POWER  Model=1   kW=169 kvar=169 vminpu=0 vmaxpu=12
New Load.305  Bus1=305.1  Phases=1 Conn=POWER  Model=1   kW=343 kvar=343 vminpu=0 vmaxpu=12
New Load.154  Bus1=154.1  Phases=1 Conn=POWER  Model=1   kW=596 kvar=596 vminpu=0 vmaxpu=12
New Load.321  Bus1=321.1  Phases=1 Conn=POWER  Model=1   kW=764 kvar=764 vminpu=0 vmaxpu=12
New Load.218  Bus1=218.1  Phases=1 Conn=POWER  Model=1   kW=930 kvar=930 vminpu=0 vmaxpu=12
New Load.196  Bus1=196.1  Phases=1 Conn=POWER  Model=1   kW=934 kvar=934 vminpu=0 vmaxpu=12
New Load.234  Bus1=234.1  Phases=1 Conn=POWER  Model=1   kW=354 kvar=354 vminpu=0 vmaxpu=12
New Load.205  Bus1=205.1  Phases=1 Conn=POWER  Model=1   kW=918 kvar=918 vminpu=0 vmaxpu=12
New Load.237  Bus1=237.1  Phases=1 Conn=POWER  Model=1   kW=517 kvar=517 vminpu=0 vmaxpu=12